Version 4
SHEET 1 1296 1220
WIRE 144 240 16 240
WIRE 352 240 208 240
WIRE 320 320 320 192
WIRE 320 320 288 320
WIRE 224 336 160 336
WIRE 320 352 288 352
WIRE 224 368 208 368
WIRE 352 368 352 240
WIRE 400 368 352 368
WIRE 496 368 464 368
WIRE 528 368 496 368
WIRE -80 384 -176 384
WIRE 16 384 16 240
WIRE 16 384 0 384
WIRE 32 384 16 384
WIRE 160 384 160 336
WIRE 160 384 112 384
WIRE 352 384 352 368
WIRE 352 384 288 384
WIRE -176 400 -176 384
WIRE 496 416 496 368
WIRE 160 432 160 384
WIRE 208 448 208 368
WIRE 352 448 352 384
WIRE 352 448 208 448
WIRE 320 496 320 352
WIRE -176 528 -176 480
WIRE 160 528 160 496
WIRE -400 720 -400 656
WIRE -400 816 -400 800
WIRE -272 816 -400 816
WIRE 128 832 0 832
WIRE 336 832 192 832
WIRE -400 848 -400 816
WIRE 304 912 304 784
WIRE 304 912 272 912
WIRE 208 928 144 928
WIRE 304 944 272 944
WIRE -400 960 -400 928
WIRE 208 960 192 960
WIRE 336 960 336 832
WIRE 384 960 336 960
WIRE 480 960 448 960
WIRE 512 960 480 960
WIRE -96 976 -192 976
WIRE 0 976 0 832
WIRE 0 976 -16 976
WIRE 16 976 0 976
WIRE 144 976 144 928
WIRE 144 976 96 976
WIRE 336 976 336 960
WIRE 336 976 272 976
WIRE -192 992 -192 976
WIRE 480 1008 480 960
WIRE 144 1024 144 976
WIRE 192 1040 192 960
WIRE 336 1040 336 976
WIRE 336 1040 192 1040
WIRE 304 1088 304 944
WIRE -192 1120 -192 1072
WIRE 144 1120 144 1088
FLAG -400 656 V+
FLAG -400 960 0
FLAG -272 816 PE
FLAG 160 528 PE
FLAG -176 528 PE
FLAG 528 368 OUT1
FLAG 496 496 0
FLAG 320 496 0
FLAG 320 192 V+
FLAG 144 1120 PE
FLAG -192 1120 PE
FLAG 512 960 OUT2
FLAG 480 1088 0
FLAG 304 1088 0
FLAG 304 784 V+
SYMBOL res 128 368 R90
WINDOW 0 0 56 VBottom 2
WINDOW 3 32 56 VTop 2
SYMATTR InstName R1
SYMATTR Value 28.7K
SYMBOL res 16 368 R90
WINDOW 0 0 56 VBottom 2
WINDOW 3 32 56 VTop 2
SYMATTR InstName R2
SYMATTR Value 28.7K
SYMBOL cap 144 432 R0
SYMATTR InstName C1
SYMATTR Value 220pF
SYMBOL cap 208 224 R90
WINDOW 0 0 32 VBottom 2
WINDOW 3 32 32 VTop 2
SYMATTR InstName C2
SYMATTR Value 440pF
SYMBOL cap 464 352 R90
WINDOW 0 0 32 VBottom 2
WINDOW 3 32 32 VTop 2
SYMATTR InstName C3
SYMATTR Value 1µ
SYMBOL voltage -400 704 R0
SYMATTR InstName V1
SYMATTR Value 1.8V
SYMBOL voltage -400 832 R0
SYMATTR InstName V2
SYMATTR Value 1.8V
SYMBOL voltage -176 384 R0
WINDOW 123 24 118 Left 2
SYMATTR InstName V3
SYMATTR Value ""
SYMATTR Value2 AC 1V 0
SYMBOL res 480 400 R0
SYMATTR InstName LOAD
SYMATTR Value 100k
SYMBOL AutoGenerated/EL5220C 256 352 R0
SYMATTR InstName U2
SYMBOL res 112 960 R90
WINDOW 0 0 56 VBottom 2
WINDOW 3 32 56 VTop 2
SYMATTR InstName R3
SYMATTR Value 10K
SYMBOL res 0 960 R90
WINDOW 0 0 56 VBottom 2
WINDOW 3 32 56 VTop 2
SYMATTR InstName R4
SYMATTR Value 18K
SYMBOL cap 128 1024 R0
SYMATTR InstName C4
SYMATTR Value 470pF
SYMBOL cap 192 816 R90
WINDOW 0 0 32 VBottom 2
WINDOW 3 32 32 VTop 2
SYMATTR InstName C5
SYMATTR Value 1nF
SYMBOL cap 448 944 R90
WINDOW 0 0 32 VBottom 2
WINDOW 3 32 32 VTop 2
SYMATTR InstName C6
SYMATTR Value 1µ
SYMBOL voltage -192 976 R0
WINDOW 123 24 118 Left 2
SYMATTR InstName V4
SYMATTR Value ""
SYMATTR Value2 AC 1V 0
SYMBOL res 464 992 R0
SYMATTR InstName LOAD1
SYMATTR Value 100k
SYMBOL AutoGenerated/EL5220C 240 944 R0
SYMATTR InstName U1
TEXT -192 776 Left 2 !.ac lin 100 1 100k
TEXT -200 592 Left 2 ;Above is a model of the low pass filter used on the Bela audio cape. \nThis filter has a cutoff of around 17823.81Hz\nThe original op-amp used by Andrew is a ADD8704, which is no\n longer manufactured. \nThe EL5420 is a similar op-amp which is still available.\nBelow is a similar filter using standard E12 resistor and E6 \ncapacitor values. The cutoff is a bit lower, 17303Hz.
TEXT -904 16 Left 2 !* connections:        +input\n*                       |  -input\n*                       |    | +Vsupply\n*                       |    |    | -Vsupply\n*                       |    |    |    |  output\n*                       |    |    |    |    |\n.subckt EL5220C         3    2    8    4    1\n*\n*Input stage\nm1 10 5 9 9 mod2 L=1e-6 W=126e-6\nm2 11 2 9 9 mod2 L=1e-6 W=126e-6\nm3 12 5 14 14 mod1 L=1e-6 W=126e-6\nm4 13 2 14 14 mod1 L=1e-6 W=126e-6\nr1 10 4 4k\nr2 11 4 4k\nr3 12 8 4k\nr4 13 8 4k\nca 10 11 0.5p\ncb 12 13 0.5p\nis1 8 9 50u\nis2 14 4 50u\nvos 5 6 2mV\n*\n*voltage noise\nidn 500 25 3.121mA\ncdn 25 26 1GF\nvdn 26 500 0V\ndn  25 500 den\nh1 6 3 vdn 14\n*\n*G1,G2 stage\ng1 500 15 10 11 2.0e-4\ng2 500 15 12 13 2.0e-4\nrt 15 500 0.8e8\nct 15 1 9pF\nd1 15 20 dx\nd2 21 15 dx\n*\n*output stage\nm5 1 17 8 8 mod2 L=1e-6 W=1000e-6\nm6 1 18 4 4 mod1 L=1e-6 W=1000e-6\ne1 8 17 poly(1) (500, 15) 0.9 1\ne2 18 4 poly(1) (15, 500) 0.9 1\n*\n*Reference voltage\nEref 500 0 poly(2) (8,0) (4,0) 0 0.5 0.5\nesp 20 500 poly(1) (8,4) -0.1 0.5\nesn 21 500 poly(1) (4,8) 0.1 0.5\nIss 8 4 346uA\n*\n.model mod1 nmos (kp=10e-6,VTO=0.8V, lambda=0.01)\n.model mod2 pmos (kp=10e-6,VTO=-0.8V, lambda=0.01)\n.model dx d(N=0.01)\n.model den d(kf=3.2e-13 af=1)\n.ends EL5220C
